<?xml version="1.0" encoding="UTF-8"?>

<!-- generated on Mon Feb  4 11:16:49 2019 by SUMO netconvert Version 0.30.0
<?xml version="1.0" encoding="UTF-8"?>

<configuration xmlns:xsi="http://www.w3.org/2001/XMLSchema-instance" xsi:noNamespaceSchemaLocation="http://sumo.dlr.de/xsd/netconvertConfiguration.xsd">

    <input>
        <osm-files value="map-ufla.osm"/>
    </input>

    <output>
        <output-file value="ufla.net.xml"/>
    </output>

    <projection>
        <proj.utm value="true"/>
    </projection>

</configuration>
-->

<net version="0.27" xmlns:xsi="http://www.w3.org/2001/XMLSchema-instance" xsi:noNamespaceSchemaLocation="http://sumo.dlr.de/xsd/net_file.xsd">

    <location netOffset="-501030.04,2349726.77" convBoundary="0.00,0.00,2668.21,4365.93" origBoundary="-44.990074,-21.249188,-44.964360,-21.209741" projParameter="+proj=utm +zone=23 +ellps=WGS84 +datum=WGS84 +units=m +no_defs"/>

    <type id="highway.bridleway" priority="1" numLanes="1" speed="2.78" allow="pedestrian" oneway="1" width="2.00"/>
    <type id="highway.bus_guideway" priority="1" numLanes="1" speed="8.33" allow="bus" oneway="1"/>
    <type id="highway.cycleway" priority="1" numLanes="1" speed="5.56" allow="bicycle" oneway="0" width="1.00"/>
    <type id="highway.footway" priority="1" numLanes="1" speed="2.78" allow="pedestrian" oneway="1" width="2.00"/>
    <type id="highway.ford" priority="1" numLanes="1" speed="2.78" allow="army" oneway="0"/>
    <type id="highway.living_street" priority="3" numLanes="1" speed="2.78" disallow="tram rail_urban rail rail_electric ship" oneway="0"/>
    <type id="highway.motorway" priority="13" numLanes="2" speed="44.44" allow="private emergency authority army vip passenger hov taxi bus coach delivery truck trailer motorcycle evehicle custom1 custom2" oneway="1"/>
    <type id="highway.motorway_link" priority="12" numLanes="1" speed="22.22" allow="private emergency authority army vip passenger hov taxi bus coach delivery truck trailer motorcycle evehicle custom1 custom2" oneway="1"/>
    <type id="highway.path" priority="1" numLanes="1" speed="2.78" allow="bicycle pedestrian" oneway="1" width="2.00"/>
    <type id="highway.pedestrian" priority="1" numLanes="1" speed="2.78" allow="pedestrian" oneway="1" width="2.00"/>
    <type id="highway.primary" priority="9" numLanes="2" speed="27.78" disallow="tram rail_urban rail rail_electric ship" oneway="0"/>
    <type id="highway.primary_link" priority="8" numLanes="1" speed="22.22" disallow="tram rail_urban rail rail_electric ship" oneway="0"/>
    <type id="highway.raceway" priority="14" numLanes="2" speed="83.33" allow="vip" oneway="0"/>
    <type id="highway.residential" priority="4" numLanes="1" speed="13.89" disallow="tram rail_urban rail rail_electric ship" oneway="0"/>
    <type id="highway.secondary" priority="7" numLanes="2" speed="27.78" disallow="tram rail_urban rail rail_electric ship" oneway="0"/>
    <type id="highway.secondary_link" priority="6" numLanes="1" speed="22.22" disallow="tram rail_urban rail rail_electric ship" oneway="0"/>
    <type id="highway.service" priority="2" numLanes="1" speed="5.56" allow="delivery bicycle pedestrian" oneway="0"/>
    <type id="highway.services" priority="1" numLanes="1" speed="8.33" disallow="tram rail_urban rail rail_electric ship" oneway="0"/>
    <type id="highway.stairs" priority="1" numLanes="1" speed="1.39" allow="pedestrian" oneway="1" width="2.00"/>
    <type id="highway.step" priority="1" numLanes="1" speed="1.39" allow="pedestrian" oneway="1" width="2.00"/>
    <type id="highway.steps" priority="1" numLanes="1" speed="1.39" allow="pedestrian" oneway="1" width="2.00"/>
    <type id="highway.tertiary" priority="6" numLanes="1" speed="22.22" disallow="tram rail_urban rail rail_electric ship" oneway="0"/>
    <type id="highway.tertiary_link" priority="5" numLanes="1" speed="22.22" disallow="tram rail_urban rail rail_electric ship" oneway="0"/>
    <type id="highway.track" priority="1" numLanes="1" speed="5.56" disallow="tram rail_urban rail rail_electric ship" oneway="0"/>
    <type id="highway.trunk" priority="11" numLanes="2" speed="27.78" disallow="tram rail_urban rail rail_electric bicycle pedestrian ship" oneway="0"/>
    <type id="highway.trunk_link" priority="10" numLanes="1" speed="22.22" disallow="tram rail_urban rail rail_electric bicycle pedestrian ship" oneway="0"/>
    <type id="highway.unclassified" priority="5" numLanes="1" speed="13.89" disallow="tram rail_urban rail rail_electric ship" oneway="0"/>
    <type id="highway.unsurfaced" priority="1" numLanes="1" speed="8.33" disallow="tram rail_urban rail rail_electric ship" oneway="0"/>
    <type id="railway.light_rail" priority="15" numLanes="1" speed="27.78" allow="rail_urban" oneway="1"/>
    <type id="railway.preserved" priority="15" numLanes="1" speed="27.78" allow="rail" oneway="1"/>
    <type id="railway.rail" priority="15" numLanes="1" speed="83.33" allow="rail rail_electric" oneway="1"/>
    <type id="railway.subway" priority="15" numLanes="1" speed="27.78" allow="rail_urban" oneway="1"/>
    <type id="railway.tram" priority="15" numLanes="1" speed="13.89" allow="tram" oneway="1"/>

    <edge id=":1430291405_0" function="internal">
        <lane id=":1430291405_0_0" index="0" disallow="tram rail_urban rail rail_electric ship" speed="27.78" length="26.37" shape="1665.25,3414.40 1659.45,3410.53 1654.07,3407.18 1648.83,3403.66 1643.44,3399.29"/>
        <lane id=":1430291405_0_1" index="1" disallow="tram rail_urban rail rail_electric ship" speed="27.78" length="26.37" shape="1667.17,3411.71 1661.42,3407.88 1656.14,3404.61 1651.00,3401.18 1645.66,3396.84"/>
    </edge>
    <edge id=":1430291405_2" function="internal">
        <lane id=":1430291405_2_0" index="0" disallow="tram rail_urban rail rail_electric ship" speed="16.67" length="45.12" shape="1667.17,3411.71 1646.87,3396.19 1641.12,3389.06 1649.91,3390.31 1651.32,3390.89"/>
    </edge>
    <edge id=":1430291405_3" function="internal">
        <lane id=":1430291405_3_0" index="0" disallow="tram rail_urban rail rail_electric ship" speed="27.78" length="2.41" shape="1667.17,3411.71 1666.64,3410.32 1666.79,3409.41"/>
    </edge>
    <edge id=":1430291405_11" function="internal">
        <lane id=":1430291405_11_0" index="0" speed="16.67" length="23.72" shape="1651.32,3390.89 1673.25,3399.94"/>
    </edge>
    <edge id=":1430291405_12" function="internal">
        <lane id=":1430291405_12_0" index="0" speed="27.78" length="2.41" shape="1666.79,3409.41 1667.60,3408.98 1669.09,3409.03"/>
    </edge>
    <edge id=":1430291405_4" function="internal">
        <lane id=":1430291405_4_0" index="0" disallow="tram rail_urban rail rail_electric ship" speed="16.67" length="17.93" shape="1672.46,3403.20 1666.42,3400.71 1664.16,3400.40 1665.69,3402.28 1671.01,3406.34"/>
    </edge>
    <edge id=":1430291405_5" function="internal">
        <lane id=":1430291405_5_0" index="0" disallow="tram rail_urban rail rail_electric ship" speed="16.67" length="27.91" shape="1672.46,3403.20 1667.39,3402.28 1660.13,3401.77 1652.33,3400.38 1645.66,3396.84"/>
    </edge>
    <edge id=":1430291405_6" function="internal">
        <lane id=":1430291405_6_0" index="0" disallow="tram rail_urban rail rail_electric ship" speed="5.56" length="4.91" shape="1672.46,3403.20 1671.43,3402.09 1671.22,3401.18 1671.83,3400.46 1673.25,3399.94"/>
    </edge>
    <edge id=":1430291405_7" function="internal">
        <lane id=":1430291405_7_0" index="0" disallow="tram rail_urban rail rail_electric ship" speed="16.67" length="24.77" shape="1650.09,3391.95 1656.19,3395.74 1662.74,3397.69 1668.75,3398.76 1673.25,3399.94"/>
    </edge>
    <edge id=":1430291405_8" function="internal">
        <lane id=":1430291405_8_0" index="0" disallow="tram rail_urban rail rail_electric ship" speed="27.78" length="25.61" shape="1650.09,3391.95 1655.34,3396.21 1660.28,3399.48 1665.35,3402.59 1671.01,3406.34"/>
        <lane id=":1430291405_8_1" index="1" disallow="tram rail_urban rail rail_electric ship" speed="27.78" length="25.61" shape="1647.87,3394.40 1653.17,3398.70 1658.21,3402.05 1663.38,3405.23 1669.09,3409.03"/>
    </edge>
    <edge id=":1430291405_10" function="internal">
        <lane id=":1430291405_10_0" index="0" disallow="tram rail_urban rail rail_electric ship" speed="27.78" length="2.41" shape="1647.87,3394.40 1648.24,3395.84 1647.99,3396.73"/>
    </edge>
    <edge id=":1430291405_13" function="internal">
        <lane id=":1430291405_13_0" index="0" speed="27.78" length="2.41" shape="1647.99,3396.73 1647.13,3397.06 1645.66,3396.84"/>
    </edge>
    <edge id=":1430849554_0" function="internal">
        <lane id=":1430849554_0_0" index="0" disallow="tram rail_urban rail rail_electric ship" speed="27.78" length="4.82" shape="221.19,2663.91 220.50,2662.59 220.53,2661.67 221.29,2661.14 222.77,2661.01"/>
    </edge>
    <edge id=":1431995588_0" function="internal">
        <lane id=":1431995588_0_0" index="0" disallow="tram rail_urban rail rail_electric ship" speed="5.56" length="9.53" shape="1036.56,2396.29 1039.10,2398.68 1041.23,2400.36 1042.95,2401.36 1044.26,2401.65"/>
    </edge>
    <edge id=":1431995588_1" function="internal">
        <lane id=":1431995588_1_0" index="0" disallow="tram rail_urban rail rail_electric ship" speed="5.56" length="4.82" shape="1036.56,2396.29 1036.85,2397.75 1036.57,2398.63 1035.69,2398.92 1034.23,2398.63"/>
    </edge>
    <edge id=":1431995588_2" function="internal">
        <lane id=":1431995588_2_0" index="0" disallow="tram rail_urban rail rail_electric ship" speed="5.56" length="6.27" shape="1032.84,2402.57 1034.75,2402.14 1035.62,2401.34 1035.44,2400.17 1034.23,2398.63"/>
    </edge>
    <edge id=":1431995588_3" function="internal">
        <lane id=":1431995588_3_0" index="0" disallow="tram rail_urban rail rail_electric ship" speed="5.56" length="11.45" shape="1032.84,2402.57 1044.26,2401.65"/>
    </edge>
    <edge id=":1431995593_0" function="internal">
        <lane id=":1431995593_0_0" index="0" disallow="tram rail_urban rail rail_electric ship" speed="5.56" length="10.89" shape="1897.04,2377.62 1886.17,2378.19"/>
    </edge>
    <edge id=":1431995593_1" function="internal">
        <lane id=":1431995593_1_0" index="0" disallow="tram rail_urban rail rail_electric ship" speed="5.56" length="10.91" shape="1896.13,2373.99 1893.37,2375.49 1891.33,2376.69 1889.19,2377.60 1886.17,2378.19"/>
    </edge>
    <edge id=":1431995602_0" function="internal">
        <lane id=":1431995602_0_0" index="0" disallow="tram rail_urban rail rail_electric ship" speed="5.56" length="7.98" shape="824.65,2370.85 825.14,2372.90 826.08,2374.58 827.46,2375.88 829.29,2376.81"/>
    </edge>
    <edge id=":1431995602_1" function="internal">
        <lane id=":1431995602_1_0" index="0" disallow="tram rail_urban rail rail_electric ship" speed="5.56" length="8.86" shape="824.65,2370.85 826.06,2379.59"/>
    </edge>
    <edge id=":1431995602_2" function="internal">
        <lane id=":1431995602_2_0" index="0" disallow="tram rail_urban rail rail_electric ship" speed="5.56" length="8.86" shape="821.18,2373.28 823.53,2374.46 825.16,2375.23 826.82,2375.90 829.29,2376.81"/>
    </edge>
    <edge id=":1431995602_3" function="internal">
        <lane id=":1431995602_3_0" index="0" disallow="tram rail_urban rail rail_electric ship" speed="5.56" length="8.26" shape="821.18,2373.28 822.99,2374.44 824.41,2375.88 825.43,2377.59 826.06,2379.59"/>
    </edge>
    <edge id=":1431995607_0" function="internal">
        <lane id=":1431995607_0_0" index="0" disallow="tram rail_urban rail rail_electric ship" speed="5.56" length="9.73" shape="1750.06,2366.41 1749.04,2364.17 1749.46,2362.47 1751.30,2361.30 1754.57,2360.65"/>
    </edge>
    <edge id=":1431995607_1" function="internal">
        <lane id=":1431995607_1_0" index="0" allow="delivery bicycle pedestrian" speed="5.56" length="4.82" shape="1750.06,2366.41 1750.03,2364.92 1750.47,2364.11 1751.39,2363.98 1752.77,2364.53"/>
    </edge>
    <edge id=":1431995607_2" function="internal">
        <lane id=":1431995607_2_0" index="0" disallow="tram rail_urban rail rail_electric ship" speed="5.56" length="10.45" shape="1744.16,2361.56 1754.57,2360.65"/>
    </edge>
    <edge id=":1431995607_3" function="internal">
        <lane id=":1431995607_3_0" index="0" allow="delivery bicycle pedestrian" speed="5.56" length="9.52" shape="1744.16,2361.56 1747.04,2361.57 1749.43,2362.07 1751.34,2363.05 1752.77,2364.53"/>
    </edge>
    <edge id=":1431995608_0" function="internal">
        <lane id=":1431995608_0_0" index="0" disallow="tram rail_urban rail rail_electric ship" speed="5.56" length="9.89" shape="1890.23,2349.75 1893.07,2350.21 1894.91,2350.98 1896.63,2352.13 1899.12,2353.71"/>
    </edge>
    <edge id=":1431995608_1" function="internal">
        <lane id=":1431995608_1_0" index="0" disallow="tram rail_urban rail rail_electric ship" speed="5.56" length="9.33" shape="1890.23,2349.75 1891.49,2350.24 1892.93,2351.53 1894.58,2353.60 1896.41,2356.46"/>
    </edge>
    <edge id=":1431995609_0" function="internal">
        <lane id=":1431995609_0_0" index="0" disallow="tram rail_urban rail rail_electric ship" speed="5.56" length="0.32" shape="1871.19,2348.09 1871.29,2348.08 1871.35,2348.08 1871.42,2348.08 1871.51,2348.09"/>
    </edge>
    <edge id=":1431995622_0" function="internal">
        <lane id=":1431995622_0_0" index="0" disallow="tram rail_urban rail rail_electric ship" speed="13.89" length="0.50" shape="616.88,2286.41 616.78,2286.31 616.70,2286.24 616.61,2286.19 616.48,2286.12"/>
    </edge>
    <edge id=":2720058340_0" function="internal">
        <lane id=":2720058340_0_0" index="0" disallow="tram rail_urban rail rail_electric ship" speed="13.89" length="5.32" shape="1024.31,2389.02 1023.09,2388.14 1021.96,2387.94 1020.92,2388.44 1019.98,2389.62"/>
    </edge>
    <edge id=":2720058340_1" function="internal">
        <lane id=":2720058340_1_0" index="0" disallow="tram rail_urban rail rail_electric ship" speed="5.56" length="11.19" shape="1024.31,2389.02 1016.19,2381.34"/>
    </edge>
    <edge id=":2720058340_2" function="internal">
        <lane id=":2720058340_2_0" index="0" disallow="tram rail_urban rail rail_electric ship" speed="13.89" length="11.84" shape="1024.31,2389.02 1022.34,2386.54 1021.43,2383.92 1021.56,2381.16 1022.75,2378.26"/>
    </edge>
    <edge id=":2720058340_3" function="internal">
        <lane id=":2720058340_3_0" index="0" disallow="tram rail_urban rail rail_electric ship" speed="5.56" length="4.82" shape="1024.31,2389.02 1024.00,2387.57 1024.27,2386.69 1025.14,2386.38 1026.61,2386.65"/>
    </edge>
    <edge id=":2720058340_4" function="internal">
        <lane id=":2720058340_4_0" index="0" disallow="tram rail_urban rail rail_electric ship" speed="13.89" length="7.43" shape="1025.61,2379.90 1024.87,2381.72 1024.79,2383.45 1025.37,2385.09 1026.61,2386.65"/>
    </edge>
    <edge id=":2720058340_5" function="internal">
        <lane id=":2720058340_5_0" index="0" disallow="tram rail_urban rail rail_electric ship" speed="22.22" length="11.23" shape="1025.61,2379.90 1019.98,2389.62"/>
    </edge>
    <edge id=":2720058340_6" function="internal">
        <lane id=":2720058340_6_0" index="0" disallow="tram rail_urban rail rail_electric ship" speed="13.89" length="5.49" shape="1025.61,2379.90 1023.59,2382.47 1021.59,2383.45"/>
    </edge>
    <edge id=":2720058340_7" function="internal">
        <lane id=":2720058340_7_0" index="0" disallow="tram rail_urban rail rail_electric ship" speed="22.22" length="2.41" shape="1025.61,2379.90 1024.28,2380.56 1023.35,2380.51"/>
    </edge>
    <edge id=":2720058340_16" function="internal">
        <lane id=":2720058340_16_0" index="0" speed="13.89" length="6.04" shape="1021.59,2383.45 1021.35,2383.57 1018.88,2383.19 1016.19,2381.34"/>
    </edge>
    <edge id=":2720058340_17" function="internal">
        <lane id=":2720058340_17_0" index="0" speed="22.22" length="2.41" shape="1023.35,2380.51 1022.85,2379.74 1022.75,2378.26"/>
    </edge>
    <edge id=":2720058340_8" function="internal">
        <lane id=":2720058340_8_0" index="0" disallow="tram rail_urban rail rail_electric ship" speed="13.89" length="5.29" shape="1018.43,2378.91 1019.66,2379.76 1020.79,2379.94 1021.82,2379.43 1022.75,2378.26"/>
    </edge>
    <edge id=":2720058340_9" function="internal">
        <lane id=":2720058340_9_0" index="0" disallow="tram rail_urban rail rail_electric ship" speed="5.56" length="11.26" shape="1018.43,2378.91 1026.61,2386.65"/>
    </edge>
    <edge id=":2720058340_10" function="internal">
        <lane id=":2720058340_10_0" index="0" disallow="tram rail_urban rail rail_electric ship" speed="13.89" length="11.83" shape="1018.43,2378.91 1020.42,2381.34 1021.35,2383.93 1021.20,2386.69 1019.98,2389.62"/>
    </edge>
    <edge id=":2720058340_11" function="internal">
        <lane id=":2720058340_11_0" index="0" disallow="tram rail_urban rail rail_electric ship" speed="5.56" length="4.82" shape="1018.43,2378.91 1018.77,2380.36 1018.52,2381.24 1017.65,2381.57 1016.19,2381.34"/>
    </edge>
    <edge id=":2720058340_12" function="internal">
        <lane id=":2720058340_12_0" index="0" disallow="tram rail_urban rail rail_electric ship" speed="13.89" length="7.32" shape="1017.13,2387.96 1017.89,2386.15 1017.98,2384.44 1017.41,2382.83 1016.19,2381.34"/>
    </edge>
    <edge id=":2720058340_13" function="internal">
        <lane id=":2720058340_13_0" index="0" disallow="tram rail_urban rail rail_electric ship" speed="22.22" length="11.22" shape="1017.13,2387.96 1022.75,2378.26"/>
    </edge>
    <edge id=":2720058340_14" function="internal">
        <lane id=":2720058340_14_0" index="0" disallow="tram rail_urban rail rail_electric ship" speed="13.89" length="5.48" shape="1017.13,2387.96 1019.18,2385.37 1021.14,2384.43"/>
    </edge>
    <edge id=":2720058340_15" function="internal">
        <lane id=":2720058340_15_0" index="0" disallow="tram rail_urban rail rail_electric ship" speed="22.22" length="2.41" shape="1017.13,2387.96 1018.47,2387.31 1019.39,2387.37"/>
    </edge>
    <edge id=":2720058340_18" function="internal">
        <lane id=":2720058340_18_0" index="0" speed="13.89" length="6.17" shape="1021.14,2384.43 1021.45,2384.28 1023.92,2384.71 1026.61,2386.65"/>
    </edge>
    <edge id=":2720058340_19" function="internal">
        <lane id=":2720058340_19_0" index="0" speed="22.22" length="2.41" shape="1019.39,2387.37 1019.89,2388.14 1019.98,2389.62"/>
    </edge>
    <edge id=":2720058345_0" function="internal">
        <lane id=":2720058345_0_0" index="0" disallow="tram rail_urban rail rail_electric ship" speed="5.56" length="9.54" shape="959.81,2329.22 958.62,2328.60 956.67,2328.22 953.95,2328.10 950.46,2328.21"/>
    </edge>
    <edge id=":2720058345_1" function="internal">
        <lane id=":2720058345_1_0" index="0" disallow="tram rail_urban rail rail_electric ship" speed="5.56" length="11.45" shape="959.81,2329.22 951.79,2321.04"/>
    </edge>
    <edge id=":2720058345_2" function="internal">
        <lane id=":2720058345_2_0" index="0" disallow="tram rail_urban rail rail_electric ship" speed="5.56" length="2.05" shape="959.81,2329.22 959.46,2327.77 959.62,2327.23"/>
    </edge>
    <edge id=":2720058345_9" function="internal">
        <lane id=":2720058345_9_0" index="0" speed="5.56" length="2.77" shape="959.62,2327.23 959.72,2326.88 960.58,2326.56 962.05,2326.79"/>
    </edge>
    <edge id=":2720058345_3" function="internal">
        <lane id=":2720058345_3_0" index="0" disallow="tram rail_urban rail rail_electric ship" speed="5.56" length="11.24" shape="954.18,2318.77 962.05,2326.79"/>
    </edge>
    <edge id=":2720058345_4" function="internal">
        <lane id=":2720058345_4_0" index="0" disallow="tram rail_urban rail rail_electric ship" speed="5.56" length="15.36" shape="954.18,2318.77 957.04,2322.62 957.38,2325.48 955.19,2327.34 950.46,2328.21"/>
    </edge>
    <edge id=":2720058345_5" function="internal">
        <lane id=":2720058345_5_0" index="0" disallow="tram rail_urban rail rail_electric ship" speed="5.56" length="4.82" shape="954.18,2318.77 954.43,2320.23 954.12,2321.10 953.24,2321.37 951.79,2321.04"/>
    </edge>
    <edge id=":2720058345_6" function="internal">
        <lane id=":2720058345_6_0" index="0" disallow="tram rail_urban rail rail_electric ship" speed="5.56" length="6.31" shape="950.26,2324.92 952.20,2324.56 953.10,2323.80 952.96,2322.62 951.79,2321.04"/>
    </edge>
    <edge id=":2720058345_7" function="internal">
        <lane id=":2720058345_7_0" index="0" disallow="tram rail_urban rail rail_electric ship" speed="5.56" length="12.17" shape="950.26,2324.92 954.43,2324.82 957.78,2325.10 960.32,2325.76 962.05,2326.79"/>
    </edge>
    <edge id=":2720058345_8" function="internal">
        <lane id=":2720058345_8_0" index="0" disallow="tram rail_urban rail rail_electric ship" speed="5.56" length="2.52" shape="950.26,2324.92 951.55,2325.67 952.01,2326.46 951.97,2326.56"/>
    </edge>
    <edge id=":2720058345_10" function="internal">
        <lane id=":2720058345_10_0" index="0" speed="5.56" length="2.30" shape="951.97,2326.56 951.65,2327.31 950.46,2328.21"/>
    </edge>
    <edge id=":2720058347_0" function="internal">
        <lane id=":2720058347_0_0" index="0" disallow="tram rail_urban rail rail_electric ship" speed="8.33" length="6.21" shape="816.19,2406.60 814.29,2406.11 812.73,2406.14 811.51,2406.67 810.64,2407.71"/>
    </edge>
    <edge id=":2720058347_1" function="internal">
        <lane id=":2720058347_1_0" index="0" disallow="tram rail_urban rail rail_electric ship" speed="5.56" length="7.34" shape="816.19,2406.60 814.13,2405.88 812.74,2405.34 811.42,2404.64 809.59,2403.47"/>
    </edge>
    <edge id=":2720058347_2" function="internal">
        <lane id=":2720058347_2_0" index="0" disallow="tram rail_urban rail rail_electric ship" speed="8.33" length="7.30" shape="815.51,2402.40 813.79,2403.72 812.65,2404.70 811.72,2405.86 810.64,2407.71"/>
    </edge>
    <edge id=":2720058347_3" function="internal">
        <lane id=":2720058347_3_0" index="0" disallow="tram rail_urban rail rail_electric ship" speed="5.56" length="6.44" shape="815.51,2402.40 813.84,2403.49 812.30,2404.03 810.88,2404.02 809.59,2403.47"/>
    </edge>
    <edge id=":2720058349_0" function="internal">
        <lane id=":2720058349_0_0" index="0" disallow="tram rail_urban rail rail_electric ship" speed="5.56" length="12.61" shape="891.75,2331.86 888.34,2331.91 885.36,2331.88 882.48,2332.21 879.35,2333.32"/>
    </edge>
    <edge id=":2720058349_1" function="internal">
        <lane id=":2720058349_1_0" index="0" disallow="tram rail_urban rail rail_electric ship" speed="5.56" length="8.44" shape="891.75,2331.86 885.52,2331.64 883.63,2330.49"/>
    </edge>
    <edge id=":2720058349_2" function="internal">
        <lane id=":2720058349_2_0" index="0" disallow="tram rail_urban rail rail_electric ship" speed="5.56" length="2.52" shape="891.75,2331.86 890.47,2331.11 890.00,2330.31 890.05,2330.21"/>
    </edge>
    <edge id=":2720058349_9" function="internal">
        <lane id=":2720058349_9_0" index="0" speed="5.56" length="10.40" shape="883.63,2330.49 882.80,2329.98 883.58,2326.89 887.88,2322.37"/>
    </edge>
    <edge id=":2720058349_10" function="internal">
        <lane id=":2720058349_10_0" index="0" speed="5.56" length="2.29" shape="890.05,2330.21 890.36,2329.46 891.55,2328.56"/>
    </edge>
    <edge id=":2720058349_3" function="internal">
        <lane id=":2720058349_3_0" index="0" disallow="tram rail_urban rail rail_electric ship" speed="5.56" length="7.34" shape="890.04,2324.87 888.36,2326.63 888.06,2327.83 889.12,2328.48 891.55,2328.56"/>
    </edge>
    <edge id=":2720058349_4" function="internal">
        <lane id=":2720058349_4_0" index="0" disallow="tram rail_urban rail rail_electric ship" speed="5.56" length="13.68" shape="890.04,2324.87 887.41,2327.26 884.96,2329.50 882.38,2331.54 879.35,2333.32"/>
    </edge>
    <edge id=":2720058349_5" function="internal">
        <lane id=":2720058349_5_0" index="0" disallow="tram rail_urban rail rail_electric ship" speed="5.56" length="4.82" shape="890.04,2324.87 888.56,2325.05 887.71,2324.70 887.48,2323.81 887.88,2322.37"/>
    </edge>
    <edge id=":2720058349_6" function="internal">
        <lane id=":2720058349_6_0" index="0" disallow="tram rail_urban rail rail_electric ship" speed="5.56" length="12.83" shape="877.91,2330.35 880.83,2328.64 883.16,2326.77 885.36,2324.69 887.88,2322.37"/>
    </edge>
    <edge id=":2720058349_7" function="internal">
        <lane id=":2720058349_7_0" index="0" disallow="tram rail_urban rail rail_electric ship" speed="5.56" length="13.87" shape="877.91,2330.35 881.23,2329.19 884.54,2328.75 887.94,2328.67 891.55,2328.56"/>
    </edge>
    <edge id=":2720058349_8" function="internal">
        <lane id=":2720058349_8_0" index="0" disallow="tram rail_urban rail rail_electric ship" speed="5.56" length="2.65" shape="877.91,2330.35 879.38,2330.55 880.11,2331.11 880.11,2331.35"/>
    </edge>
    <edge id=":2720058349_11" function="internal">
        <lane id=":2720058349_11_0" index="0" speed="5.56" length="2.17" shape="880.11,2331.35 880.10,2332.04 879.35,2333.32"/>
    </edge>
    <edge id=":2720058352_0" function="internal">
        <lane id=":2720058352_0_0" index="0" disallow="tram rail_urban rail rail_electric ship" speed="5.56" length="3.56" shape="830.41,2357.10 829.46,2357.57 828.84,2357.95 828.30,2358.43 827.56,2359.19"/>
    </edge>
    <edge id=":2720058352_1" function="internal">
        <lane id=":2720058352_1_0" index="0" disallow="tram rail_urban rail rail_electric ship" speed="5.56" length="4.82" shape="830.41,2357.10 828.93,2356.90 828.20,2356.34 828.21,2355.41 828.96,2354.13"/>
    </edge>
    <edge id=":2720058358_0" function="internal">
        <lane id=":2720058358_0_0" index="0" disallow="tram rail_urban rail rail_electric ship" speed="5.56" length="8.69" shape="1608.39,2408.07 1606.28,2405.77 1604.45,2404.16 1602.89,2403.23 1601.60,2402.98"/>
    </edge>
    <edge id=":2720058358_1" function="internal">
        <lane id=":2720058358_1_0" index="0" disallow="tram rail_urban rail rail_electric ship" speed="5.56" length="4.82" shape="1608.39,2408.07 1608.21,2406.59 1608.58,2405.74 1609.47,2405.52 1610.90,2405.93"/>
    </edge>
    <edge id=":2720058358_2" function="internal">
        <lane id=":2720058358_2_0" index="0" disallow="tram rail_urban rail rail_electric ship" speed="5.56" length="6.04" shape="1612.49,2402.02 1610.69,2402.43 1609.82,2403.21 1609.89,2404.38 1610.90,2405.93"/>
    </edge>
    <edge id=":2720058358_3" function="internal">
        <lane id=":2720058358_3_0" index="0" disallow="tram rail_urban rail rail_electric ship" speed="5.56" length="10.94" shape="1612.49,2402.02 1601.60,2402.98"/>
    </edge>
    <edge id=":2720058366_0" function="internal">
        <lane id=":2720058366_0_0" index="0" disallow="tram rail_urban rail rail_electric ship" speed="8.33" length="9.99" shape="1782.43,2601.37 1775.12,2594.57"/>
    </edge>
    <edge id=":2720058366_1" function="internal">
        <lane id=":2720058366_1_0" index="0" disallow="tram rail_urban rail rail_electric ship" speed="8.33" length="5.65" shape="1782.43,2601.37 1780.33,2598.97 1779.67,2596.60"/>
    </edge>
    <edge id=":2720058366_2" function="internal">
        <lane id=":2720058366_2_0" index="0" disallow="tram rail_urban rail rail_electric ship" speed="11.11" length="2.53" shape="1782.43,2601.37 1782.03,2599.94 1782.25,2599.05 1782.37,2599.00"/>
    </edge>
    <edge id=":2720058366_9" function="internal">
        <lane id=":2720058366_9_0" index="0" speed="8.33" length="5.65" shape="1779.67,2596.60 1780.42,2594.24 1782.60,2591.92"/>
    </edge>
    <edge id=":2720058366_10" function="internal">
        <lane id=":2720058366_10_0" index="0" speed="11.11" length="2.29" shape="1782.37,2599.00 1783.10,2598.69 1784.58,2598.87"/>
    </edge>
    <edge id=":2720058366_3" function="internal">
        <lane id=":2720058366_3_0" index="0" disallow="tram rail_urban rail rail_electric ship" speed="8.33" length="5.24" shape="1784.66,2594.50 1783.65,2595.57 1783.30,2596.66 1783.61,2597.76 1784.58,2598.87"/>
    </edge>
    <edge id=":2720058366_4" function="internal">
        <lane id=":2720058366_4_0" index="0" disallow="tram rail_urban rail rail_electric ship" speed="5.56" length="10.64" shape="1784.66,2594.50 1782.04,2596.12 1779.58,2596.67 1777.27,2596.16 1775.12,2594.57"/>
    </edge>
    <edge id=":2720058366_5" function="internal">
        <lane id=":2720058366_5_0" index="0" disallow="tram rail_urban rail rail_electric ship" speed="5.56" length="4.82" shape="1784.66,2594.50 1783.18,2594.63 1782.34,2594.24 1782.15,2593.34 1782.60,2591.92"/>
    </edge>
    <edge id=":2720058366_6" function="internal">
        <lane id=":2720058366_6_0" index="0" disallow="tram rail_urban rail rail_electric ship" speed="5.56" length="5.71" shape="1777.48,2592.26 1778.57,2593.03 1779.79,2593.23 1781.13,2592.86 1782.60,2591.92"/>
    </edge>
    <edge id=":2720058366_7" function="internal">
        <lane id=":2720058366_7_0" index="0" disallow="tram rail_urban rail rail_electric ship" speed="8.33" length="9.71" shape="1777.48,2592.26 1784.58,2598.87"/>
    </edge>
    <edge id=":2720058366_8" function="internal">
        <lane id=":2720058366_8_0" index="0" disallow="tram rail_urban rail rail_electric ship" speed="5.56" length="2.41" shape="1777.48,2592.26 1777.75,2593.72 1777.45,2594.59"/>
    </edge>
    <edge id=":2720058366_11" function="internal">
        <lane id=":2720058366_11_0" index="0" speed="5.56" length="2.41" shape="1777.45,2594.59 1776.57,2594.88 1775.12,2594.57"/>
    </edge>
    <edge id=":2720191963_0" function="internal">
        <lane id=":2720191963_0_0" index="0" disallow="tram rail_urban rail rail_electric ship" speed="5.56" length="9.50" shape="1719.09,2110.40 1712.75,2117.49"/>
    </edge>
    <edge id=":2720191963_1" function="internal">