<!-- 

Example of flow generation on SUMO
#dnatividade

 -->
<routes>
	<vType id="s20" speedFactor="1" speedDev="0"> </vType>
	<vType id="s40" speedFactor="2" speedDev="0"> </vType>
	<vType id="s60" speedFactor="3" speedDev="0"> </vType>

	<vType id="slow50"    speedFactor="0.5" speedDev="0"> </vType>
	<vType id="fast"      speedFactor="2.5" speedDev="0"> </vType>
	<vType id="superFast" speedFactor="4"   speedDev="0"> </vType>

	<flow id="node1" type="s60" color="red"   begin="0"  end="30"  number="1" departLane="random" from="291265586"/>
	<flow id="node2" type="s60"   color="white" begin="25" end="120" number="1" departLane="random" from="266455682#12" to="291263821#2"/>
	<flow id="node3" type="s60" color="green" begin="25" end="60"  number="1" departLane="random" from="266454613"    to="291265581#16"/>
</routes>

