<?xml version="1.0" encoding="UTF-8"?>

<!-- generated on Tue Feb 26 10:14:37 2019 by SUMO polyconvert Version 0.32.0
<?xml version="1.0" encoding="UTF-8"?>

<configuration xmlns:xsi="http://www.w3.org/2001/XMLSchema-instance" xsi:noNamespaceSchemaLocation="http://sumo.dlr.de/xsd/polyconvertConfiguration.xsd">

    <input>
        <net-file value="ufla.net.xml"/>
        <osm-files value="ufla2.osm"/>
        <type-file value="osmPolyconvert.typ.xml"/>
    </input>

    <output>
        <output-file value="ufla.poly.xml"/>
    </output>

    <processing>
        <poi-layer-offset value="5"/>
    </processing>

</configuration>
-->

<additional xmlns:xsi="http://www.w3.org/2001/XMLSchema-instance" xsi:noNamespaceSchemaLocation="http://sumo.dlr.de/xsd/additional_file.xsd">
    <location netOffset="-501030.04,2349726.77" convBoundary="-5452.76,-1488.55,2668.21,14157.68" origBoundary="-45.042595,-21.262638,-44.964360,-21.121268" projParameter="+proj=utm +zone=23 +ellps=WGS84 +datum=WGS84 +units=m +no_defs"/>

    <poly id="129859486" type="water" color="181,209,209" fill="1" layer="-4.00" shape="1129.75,1950.18 1159.07,1987.89 1170.80,1998.17 1182.52,1998.51 1184.94,2008.12 1212.88,2030.06 1208.40,2040.69 1198.05,2044.46 1181.16,2042.75 1140.45,2027.67 1135.28,2016.35 1125.62,2014.29 1118.38,2023.56 1106.31,2017.04 1093.89,2020.81 1083.88,2021.16 1078.02,2030.08 1066.30,2033.16 1063.88,2046.20 1056.30,2056.48 1041.47,2060.25 1046.98,2037.28 1051.47,2027.68 1043.52,2003.68 1047.66,1989.62 1057.32,1973.49 1120.78,1948.80 1129.75,1950.18"/>
    <poly id="129859487" type="building" color="255,230,230" fill="1" layer="-1.00" shape="1603.49,2321.20 1615.99,2332.32 1667.29,2275.31 1654.78,2264.19 1603.49,2321.20"/>
    <poly id="129859494" type="building" color="255,230,230" fill="1" layer="-1.00" shape="1567.59,2291.64 1579.64,2302.50 1630.51,2246.77 1618.46,2235.90 1567.59,2291.64"/>
    <poly id="129859495" type="water" color="181,209,209" fill="1" layer="-4.00" shape="1201.70,1812.87 1201.92,1795.40 1202.32,1762.19 1202.66,1734.53 1202.77,1725.54 1216.59,1719.35 1239.01,1719.35 1261.08,1729.63 1278.32,1725.17 1279.02,1720.37 1291.43,1720.03 1297.29,1725.51 1312.81,1716.93 1335.92,1712.47 1341.78,1702.87 1352.48,1704.25 1358.34,1698.07 1366.62,1700.13 1373.51,1690.86 1378.00,1690.86 1391.79,1673.72 1405.59,1668.22 1423.87,1671.31 1434.91,1655.88 1446.29,1657.59 1451.11,1652.45 1461.12,1655.88 1473.19,1678.16 1473.54,1688.10 1466.64,1698.40 1449.06,1704.57 1440.78,1703.55 1431.81,1712.11 1413.87,1722.75 1393.18,1728.92 1371.80,1727.55 1362.49,1735.79 1355.93,1739.22 1338.69,1740.25 1328.69,1766.65 1314.54,1766.31 1305.24,1776.60 1284.55,1777.63 1272.13,1781.07 1244.19,1797.53 1232.47,1803.36 1201.70,1812.87"/>
    <poly id="266485500" type="building" color="255,230,230" fill="1" layer="-1.00" shape="1614.93,2576.05 1613.69,2592.90 1630.96,2594.15 1632.19,2577.30 1614.93,2576.05"/>
    <poly id="266485501" type="building" color="255,230,230" fill="1" layer="-1.00" shape="1333.82,2374.36 1363.32,2373.25 1363.07,2356.92 1383.67,2356.92 1384.48,2374.35 1415.09,2372.68 1413.41,2340.06 1382.24,2341.17 1382.24,2325.67 1362.20,2325.68 1362.75,2341.73 1332.70,2343.39 1333.82,2374.36"/>
    <poly id="266485502" type="building" color="255,230,230" fill="1" layer="-1.00" shape="1621.06,2553.32 1631.39,2544.41 1667.33,2585.57 1657.00,2594.49 1621.06,2553.32"/>
    <poly id="266485503" type="water" color="181,209,209" fill="1" layer="-4.00" shape="2126.15,1894.99 2130.02,1775.46 2143.38,1763.83 2159.27,1766.84 2240.24,1795.36 2253.60,1799.23 2270.30,1793.69 2299.80,1773.21 2308.70,1773.21 2320.14,1771.23 2337.09,1787.59 2313.16,1818.58 2296.47,1835.74 2279.78,1853.45 2260.85,1873.38 2245.82,1898.85 2224.12,1910.47 2201.30,1915.46 2157.32,1911.04 2131.71,1905.51 2126.15,1894.99"/>
    <poly id="266485505" type="building" color="255,230,230" fill="1" layer="-1.00" shape="1675.12,2500.86 1719.00,2552.61 1707.34,2562.38 1663.46,2510.64 1675.12,2500.86"/>
    <poly id="266485506" type="water" color="181,209,209" fill="1" layer="-4.00" shape="2269.46,3186.12 2269.46,3174.50 2290.91,3142.65 2360.49,3067.36 2379.41,3059.06 2402.79,3044.66 2415.85,3043.85 2444.54,3039.67 2460.94,3055.46 2465.39,3070.96 2456.49,3083.70 2425.32,3099.75 2407.51,3115.25 2388.59,3164.52 2378.02,3199.38 2371.35,3232.59 2358.54,3238.12 2347.97,3233.70 2335.72,3219.31 2312.89,3209.91 2283.38,3200.51 2269.46,3186.12"/>
    <poly id="285840877" type="amenity" color="237,199,199" fill="1" layer="-1.00" shape="1333.82,2442.09 1335.48,2466.72 1326.86,2467.55 1326.58,2455.93 1288.45,2458.97 1285.11,2450.12 1283.44,2445.42 1283.99,2440.99 1288.17,2440.44 1294.29,2444.31 1333.82,2442.09"/>
    <poly id="285840877#1" type="building" color="255,230,230" fill="1" layer="-1.00" shape="1333.82,2442.09 1335.48,2466.72 1326.86,2467.55 1326.58,2455.93 1288.45,2458.97 1285.11,2450.12 1283.44,2445.42 1283.99,2440.99 1288.17,2440.44 1294.29,2444.31 1333.82,2442.09"/>
    <poly id="285840977" type="building" color="255,230,230" fill="1" layer="-1.00" shape="1132.88,2444.86 1134.03,2462.54 1038.69,2468.67 1038.46,2464.55 1037.64,2450.88 1132.88,2444.86"/>
    <poly id="292489661" type="building" color="255,230,230" fill="1" layer="-1.00" shape="1711.57,2441.97 1701.73,2430.56 1665.07,2461.81 1717.69,2522.83 1726.02,2515.74 1683.24,2466.12 1711.57,2441.97"/>
    <poly id="292489662" type="building" color="255,230,230" fill="1" layer="-1.00" shape="1723.65,2503.27 1708.25,2485.45 1723.01,2472.83 1720.25,2469.63 1726.40,2464.39 1722.14,2459.46 1726.71,2455.55 1715.85,2442.99 1723.41,2436.52 1720.01,2432.59 1736.50,2418.51 1746.24,2429.77 1735.36,2439.07 1741.52,2446.21 1749.84,2439.10 1762.10,2453.28 1755.04,2459.31 1746.78,2449.76 1738.21,2457.09 1756.26,2477.96 1765.49,2470.08 1772.40,2478.07 1755.17,2492.80 1746.98,2483.34 1723.65,2503.27"/>
    <poly id="292489663" type="building" color="255,230,230" fill="1" layer="-1.00" shape="1169.61,2344.43 1233.98,2341.90 1235.66,2384.15 1219.67,2384.79 1219.32,2375.89 1188.73,2377.09 1189.09,2386.23 1171.30,2386.93 1169.61,2344.43"/>
    <poly id="292489666" type="amenity" color="237,199,199" fill="1" layer="-1.00" shape="1299.01,2553.48 1297.27,2525.79 1330.16,2523.74 1329.79,2517.89 1360.43,2515.97 1362.55,2549.52 1299.01,2553.48"/>
    <poly id="292489666#1" type="building" color="255,230,230" fill="1" layer="-1.00" shape="1299.01,2553.48 1297.27,2525.79 1330.16,2523.74 1329.79,2517.89 1360.43,2515.97 1362.55,2549.52 1299.01,2553.48"/>
    <poly id="292489672" type="amenity" color="237,199,199" fill="1" layer="-1.00" shape="1681.44,2122.38 1690.76,2113.12 1680.88,2103.29 1671.56,2112.57 1681.44,2122.38"/>
    <poly id="292489672#1" type="building" color="255,230,230" fill="1" layer="-1.00" shape="1681.44,2122.38 1690.76,2113.12 1680.88,2103.29 1671.56,2112.57 1681.44,2122.38"/>
    <poly id="292489676" type="amenity" color="237,199,199" fill="1" layer="-1.00" shape="1622.69,2019.74 1591.41,1991.21 1626.03,1953.70 1657.31,1982.23 1622.69,2019.74"/>
    <poly id="292489678" type="building" color="255,230,230" fill="1" layer="-1.00" shape="1689.07,2156.43 1705.48,2138.16 1724.97,2154.76 1708.83,2173.02 1689.07,2156.43"/>
    <poly id="320052864" type="building" color="255,230,230" fill="1" layer="-1.00" shape="1098.49,2327.24 1098.33,2310.64 1130.20,2310.36 1130.36,2326.96 1098.49,2327.24"/>
    <poly id="320052865" type="building" color="255,230,230" fill="1" layer="-1.00" shape="1170.84,2324.37 1169.93,2307.37 1216.07,2304.95 1216.96,2321.95 1170.84,2324.37"/>
    <poly id="365022165" type="building" color="255,230,230" fill="1" layer="-1.00" shape="1418.18,2510.44 1410.07,2509.13 1402.77,2505.34 1397.04,2499.48 1393.45,2492.13 1392.38,2483.39 1394.34,2474.80 1399.10,2467.37 1406.10,2461.98 1414.50,2459.23 1423.35,2459.48 1431.60,2462.66 1438.30,2468.43 1442.64,2476.11 1444.12,2484.14 1442.99,2492.24 1439.37,2499.58 1433.61,2505.42 1426.30,2509.16 1418.18,2510.44"/>
    <poly id="365022166" type="building" color="255,230,230" fill="1" layer="-1.00" shape="1452.33,2525.99 1447.29,2519.19 1444.70,2511.16 1444.80,2502.72 1447.59,2494.76 1452.79,2488.08 1460.22,2483.23 1468.84,2481.11 1477.69,2481.96 1485.74,2485.69 1492.11,2491.87 1496.03,2499.79 1497.09,2508.57 1495.15,2517.19 1490.44,2524.69 1483.85,2530.00 1475.89,2532.96 1467.41,2533.25 1459.28,2530.84 1452.33,2525.99"/>
    <poly id="365022178" type="building" color="255,230,230" fill="1" layer="-1.00" shape="1390.78,2453.36 1443.37,2448.87 1442.15,2434.73 1418.58,2436.73 1418.06,2430.61 1413.68,2430.99 1414.17,2436.66 1389.51,2438.75 1390.78,2453.36"/>
    <poly id="365022179" type="building" color="255,230,230" fill="1" layer="-1.00" shape="1654.90,2515.96 1694.52,2562.47 1684.47,2570.94 1644.84,2524.43 1654.90,2515.96"/>
    <poly id="365022180" type="building" color="255,230,230" fill="1" layer="-1.00" shape="1720.92,2555.01 1732.64,2567.06 1727.74,2571.76 1725.96,2569.93 1719.23,2576.39 1720.57,2577.76 1717.48,2580.73 1718.63,2583.00 1714.74,2586.74 1703.35,2575.03 1710.84,2567.84 1717.47,2574.65 1718.99,2573.19 1710.78,2564.76 1720.92,2555.01"/>
    <poly id="365022181" type="building" color="255,230,230" fill="1" layer="-1.00" shape="1668.66,2599.87 1672.33,2592.13 1680.35,2590.30 1685.85,2596.92 1683.33,2605.80 1680.81,2607.40 1682.19,2609.90 1685.17,2608.54 1686.54,2611.96 1678.98,2614.69 1677.83,2611.04 1680.13,2610.35 1678.52,2608.08 1673.48,2607.85 1668.66,2599.87"/>
    <poly id="365022182" type="building" color="255,230,230" fill="1" layer="-1.00" shape="1655.70,2628.31 1662.14,2634.98 1647.54,2648.87 1626.31,2626.84 1635.56,2618.04 1650.36,2633.40 1655.70,2628.31"/>
    <poly id="365022183" type="building" color="255,230,230" fill="1" layer="-1.00" shape="1719.68,2594.77 1710.24,2604.02 1727.62,2621.56 1737.06,2612.31 1719.68,2594.77"/>
    <poly id="365022184" type="building" color="255,230,230" fill="1" layer="-1.00" shape="1656.06,2655.95 1682.87,2630.76 1716.55,2666.18 1689.74,2691.39 1656.06,2655.95"/>
    <poly id="365022185" type="parking" color="184,184,179" fill="1" layer="-1.00" shape="1615.21,2549.71 1633.13,2568.89 1626.48,2575.04 1613.12,2574.26 1612.27,2588.49 1610.03,2591.38 1609.62,2591.73 1590.73,2572.33 1615.21,2549.71"/>
    <poly id="365022186" type="parking" color="184,184,179" fill="1" layer="-1.00" shape="1609.62,2591.73 1635.56,2618.04 1659.84,2597.67 1657.00,2594.49 1653.66,2596.30 1636.76,2576.97 1634.50,2578.92 1632.85,2596.32 1612.73,2594.42 1610.03,2591.38 1609.62,2591.73"/>
    <poly id="365022187" type="tourism" color="207,245,201" fill="1" layer="-2.00" shape="1787.11,2190.38 1835.27,2298.33 1879.33,2339.06 2016.62,2393.01 2046.33,2383.85 2171.29,2232.06 2131.33,2231.05 2083.17,2206.62 2025.81,2182.19 1986.87,2164.88 1969.46,2184.23 1951.02,2186.27 1929.50,2165.91 1905.93,2143.51 1874.17,2130.27 1848.56,2123.14 1829.09,2122.13 1807.58,2150.65 1787.11,2190.38"/>
    <poly id="365022188" type="forest" color="140,196,107" fill="1" layer="-3.00" shape="2178.58,2854.38 2159.11,2848.27 2142.71,2819.76 2125.29,2787.17 2124.26,2755.59 2131.42,2712.81 2142.69,2689.38 2149.86,2656.80 2163.17,2628.27 2174.44,2614.00 2157.02,2600.77 2131.40,2628.28 2120.14,2639.48 2108.88,2629.30 2066.88,2682.27 2091.47,2705.69 2055.61,2707.74 2036.15,2727.10 2030.01,2751.54 2039.23,2787.18 2061.78,2823.84 2084.32,2857.45 2104.82,2873.75 2132.48,2881.89 2164.24,2873.74 2178.58,2854.38"/>
    <poly id="365022189" type="forest" color="140,196,107" fill="1" layer="-3.00" shape="2177.46,2364.47 2194.87,2366.51 2242.00,2337.98 2282.97,2315.56 2306.54,2305.37 2311.66,2329.82 2329.07,2345.09 2375.18,2332.86 2416.15,2318.58 2425.37,2308.40 2434.59,2293.12 2456.10,2291.08 2477.62,2280.89 2502.19,2244.22 2523.70,2209.59 2546.23,2184.12 2571.83,2158.65 2568.76,2142.36 2556.47,2131.16 2525.74,2141.35 2511.39,2118.94 2358.76,2179.07 2328.02,2181.11 2299.33,2188.24 2224.55,2205.58 2241.98,2224.92 2189.74,2263.64 2195.88,2291.14 2149.79,2319.66 2177.46,2364.47"/>
    <poly id="365022190" type="tourism" color="207,245,201" fill="1" layer="-2.00" shape="2178.58,2854.38 2215.45,2816.69 2237.99,2774.93 2258.46,2733.16 2278.95,2686.30 2285.08,2648.61 2288.15,2611.95 2292.24,2585.47 2304.54,2573.24 2315.80,2562.04 2317.84,2527.41 2346.53,2495.82 2359.84,2469.34 2390.57,2441.84 2433.58,2382.75 2463.28,2345.06 2499.13,2298.20 2530.88,2272.73 2555.47,2274.76 2574.94,2275.77 2597.48,2263.55 2624.11,2276.78 2659.96,2229.92 2657.90,2210.58 2643.56,2192.24 2616.91,2168.83 2597.46,2162.71 2571.83,2158.65 2546.23,2184.12 2523.70,2209.59 2502.19,2244.22 2477.62,2280.89 2456.10,2291.08 2434.59,2293.12 2425.37,2308.40 2416.15,2318.58 2375.18,2332.86 2329.07,2345.09 2298.35,2354.26 2265.56,2389.91 2246.12,2435.76 2208.22,2472.42 2188.75,2502.98 2160.09,2568.18 2136.52,2567.16 2117.05,2571.24 2112.96,2601.80 2131.40,2628.28 2157.02,2600.77 2174.44,2614.00 2163.17,2628.27 2149.86,2656.80 2142.69,2689.38 2131.42,2712.81 2124.26,2755.59 2125.29,2787.17 2142.71,2819.76 2159.11,2848.27 2178.58,2854.38"/>
    <poly id="365432453" type="building" color="255,230,230" fill="1" layer="-1.00" shape="1461.53,2469.73 1523.68,2465.78 1522.77,2451.71 1460.63,2455.66 1461.53,2469.73"/>
    <poly id="365432454" type="building" color="255,230,230" fill="1" layer="-1.00" shape="1509.66,2451.76 1522.72,2450.88 1520.67,2420.86 1507.62,2421.73 1509.66,2451.76"/>
    <poly id="365432455" type="building" color="255,230,230" fill="1" layer="-1.00" shape="1479.39,2452.27 1493.52,2451.31 1491.65,2423.99 1477.77,2424.94 1477.55,2421.79 1447.97,2423.80 1449.00,2438.79 1478.32,2436.79 1479.39,2452.27"/>
    <poly id="365432456" type="building" color="255,230,230" fill="1" layer="-1.00" shape="1363.74,2493.17 1382.24,2493.33 1382.31,2486.21 1363.80,2486.06 1363.74,2493.17"/>
    <poly id="365432457" type="building" color="255,230,230" fill="1" layer="-1.00" shape="1361.84,2444.91 1379.53,2443.80 1378.82,2432.75 1361.14,2433.86 1361.84,2444.91"/>
    <poly id="365438571" type="tourism" color="207,245,201" fill="1" layer="-2.00" shape="1259.52,2515.41 1258.38,2516.73 1256.86,2517.62 1255.14,2517.95 1253.41,2517.69 1251.85,2516.89 1250.68,2515.66 1249.95,2514.13 1249.76,2512.45 1250.14,2510.79 1251.01,2509.34 1252.30,2508.24 1253.88,2507.62 1255.58,2507.53 1257.22,2507.99 1258.68,2508.97 1259.71,2510.38 1260.22,2512.05 1260.16,2513.79 1259.52,2515.41"/>
    <poly id="365438572" type="tourism" color="207,245,201" fill="1" layer="-2.00" shape="1452.86,2577.79 1482.64,2574.47 1503.24,2580.83 1522.44,2590.51 1537.76,2602.68 1545.66,2612.26 1533.97,2630.80 1527.57,2657.64 1522.28,2685.87 1515.34,2727.10 1496.41,2747.02 1496.97,2755.88 1504.77,2783.83 1525.92,2806.24 1543.18,2825.88 1530.01,2846.03 1513.00,2857.47 1498.38,2864.86 1482.56,2869.14 1479.69,2854.61 1487.36,2845.56 1495.26,2833.17 1501.25,2821.49 1500.53,2813.39 1491.91,2806.01 1479.44,2808.16 1467.46,2809.59 1463.62,2788.15 1465.05,2773.14 1457.38,2760.03 1453.31,2746.94 1448.28,2740.27 1438.69,2734.79 1429.35,2737.40 1418.81,2745.98 1408.02,2747.18 1401.31,2745.03 1408.25,2714.06 1415.92,2700.24 1411.37,2690.71 1421.91,2664.50 1431.73,2643.06 1437.72,2620.67 1442.75,2595.65 1452.86,2577.79"/>
    <poly id="365438573" type="water" color="181,209,209" fill="1" layer="-4.00" shape="1386.83,2616.42 1426.38,2608.80 1422.51,2588.34 1382.88,2595.51 1386.83,2616.42"/>
    <poly id="365438574" type="water" color="181,209,209" fill="1" layer="-4.00" shape="1394.61,2822.23 1432.72,2832.23 1446.37,2829.60 1452.85,2820.55 1459.31,2807.21 1460.02,2795.77 1460.27,2784.10 1457.87,2771.00 1451.16,2758.61 1444.93,2747.89 1439.42,2742.65 1431.75,2742.65 1420.96,2747.90 1409.70,2757.18 1402.03,2778.62 1395.33,2800.07 1394.61,2822.23"/>
    <poly id="365438575" type="amenity" color="237,199,199" fill="1" layer="-1.00" shape="1034.62,2309.20 1032.34,2307.88 1029.75,2307.32 1027.12,2307.59 1024.70,2308.66 1022.74,2310.42 1021.42,2312.70 1020.86,2315.54 1021.32,2318.41 1022.73,2320.95 1024.93,2322.86 1027.65,2323.91 1030.56,2323.97 1033.32,2323.04 1035.61,2321.23 1037.13,2318.76 1037.70,2316.19 1037.44,2313.57 1036.38,2311.17 1034.62,2309.20"/>
    <poly id="365438575#1" type="building" color="255,230,230" fill="1" layer="-1.00" shape="1034.62,2309.20 1032.34,2307.88 1029.75,2307.32 1027.12,2307.59 1024.70,2308.66 1022.74,2310.42 1021.42,2312.70 1020.86,2315.54 1021.32,2318.41 1022.73,2320.95 1024.93,2322.86 1027.65,2323.91 1030.56,2323.97 1033.32,2323.04 1035.61,2321.23 1037.13,2318.76 1037.70,2316.19 1037.44,2313.57 1036.38,2311.17 1034.62,2309.20"/>
    <poly id="365438581" type="amenity" color="237,199,199" fill="1" layer="-1.00" shape="1010.15,2485.80 1007.95,2449.90 960.63,2452.76 962.82,2488.67 1010.15,2485.80"/>
    <poly id="365438581#1" type="building" color="255,230,230" fill="1" layer="-1.00" shape="1010.15,2485.80 1007.95,2449.90 960.63,2452.76 962.82,2488.67 1010.15,2485.80"/>
    <poly id="365438582" type="building" color="255,230,230" fill="1" layer="-1.00" shape="1039.44,2493.82 1137.28,2488.07 1136.21,2470.00 1038.36,2475.75 1039.44,2493.82"/>
    <poly id="365438583" type="building" color="255,230,230" fill="1" layer="-1.00" shape="1151.09,2440.95 1239.32,2437.05 1240.36,2460.32 1205.65,2461.86 1205.86,2466.43 1219.98,2465.81 1220.47,2476.59 1208.18,2477.14 1208.28,2479.57 1201.58,2479.87 1202.14,2492.36 1179.69,2493.35 1179.15,2481.16 1152.90,2482.32 1152.26,2468.23 1196.72,2466.26 1196.28,2456.44 1151.87,2458.42 1151.09,2440.95"/>
    <poly id="367178401" type="building" color="255,230,230" fill="1" layer="-1.00" shape="1535.48,2203.26 1547.93,2213.46 1567.70,2189.60 1555.24,2179.40 1535.48,2203.26"/>
    <poly id="367178405" type="building" color="255,230,230" fill="1" layer="-1.00" shape="918.84,2338.70 886.39,2340.83 887.05,2350.86 884.46,2351.03 885.21,2362.30 918.36,2360.11 919.33,2374.59 931.60,2373.79 930.53,2357.57 965.95,2355.24 965.44,2347.66 919.64,2350.67 918.84,2338.70"/>
    <poly id="367178408" type="building" color="255,230,230" fill="1" layer="-1.00" shape="808.07,2436.02 826.20,2443.58 825.07,2446.24 836.64,2451.06 845.35,2430.45 834.94,2426.12 833.24,2430.14 813.95,2422.09 808.07,2436.02"/>
    <poly id="367178409" type="building" color="255,230,230" fill="1" layer="-1.00" shape="950.59,2455.31 953.19,2509.53 931.78,2510.54 929.17,2456.33 950.59,2455.31"/>
    <poly id="367178411" type="building" color="255,230,230" fill="1" layer="-1.00" shape="734.52,2530.93 744.65,2507.95 707.84,2491.91 697.70,2514.87 734.52,2530.93"/>
    <poly id="367178414" type="building" color="255,230,230" fill="1" layer="-1.00" shape="1221.53,2473.86 1236.44,2473.43 1237.08,2495.27 1223.44,2495.67 1223.58,2500.24 1205.02,2500.78 1204.52,2483.80 1215.14,2483.49 1215.34,2489.99 1222.00,2489.79 1221.53,2473.86"/>
    <poly id="367178415" type="tourism" color="207,245,201" fill="1" layer="-2.00" shape="1240.26,2278.75 1238.47,2279.11 1237.07,2280.25 1236.35,2281.91 1236.51,2283.72 1237.48,2285.24 1239.05,2286.14 1240.87,2286.22 1242.51,2285.44 1243.60,2283.99 1243.89,2282.21 1243.32,2280.49 1242.00,2279.24 1240.26,2278.75"/>
    <poly id="367178418" type="building" color="255,230,230" fill="1" layer="-1.00" shape="1489.54,2345.16 1535.98,2292.14 1527.85,2285.11 1523.27,2290.35 1516.29,2284.31 1522.51,2277.21 1509.01,2265.53 1459.12,2322.48 1473.53,2334.94 1504.19,2299.94 1509.64,2304.65 1480.79,2337.58 1489.54,2345.16"/>
    <poly id="367178419" type="amenity" color="237,199,199" fill="1" layer="-1.00" shape="1038.46,2464.55 1028.17,2465.16 1027.36,2451.49 1037.64,2450.88 1038.46,2464.55"/>
    <poly id="367178419#1" type="building" color="255,230,230" fill="1" layer="-1.00" shape="1038.46,2464.55 1028.17,2465.16 1027.36,2451.49 1037.64,2450.88 1038.46,2464.55"/>
    <poly id="367178420" type="amenity" color="237,199,199" fill="1" layer="-1.00" shape="547.07,2877.08 544.20,2874.53 540.80,2877.64 536.56,2873.11 538.85,2870.93 536.84,2868.90 532.81,2868.14 530.06,2865.14 529.68,2860.99 532.04,2857.43 536.11,2856.11 540.11,2857.63 542.29,2861.30 541.71,2865.42 550.41,2873.83 547.07,2877.08"/>
    <poly id="367178420#1" type="building" color="255,230,230" fill="1" layer="-1.00" shape="547.07,2877.08 544.20,2874.53 540.80,2877.64 536.56,2873.11 538.85,2870.93 536.84,2868.90 532.81,2868.14 530.06,2865.14 529.68,2860.99 532.04,2857.43 536.11,2856.11 540.11,2857.63 542.29,2861.30 541.71,2865.42 550.41,2873.83 547.07,2877.08"/>
    <poly id="373228699" type="building" color="255,230,230" fill="1" layer="-1.00" shape="1336.56,2600.98 1339.27,2633.99 1267.56,2642.19 1265.90,2609.75 1336.56,2600.98"/>
    <poly id="373229527" type="building" color="255,230,230" fill="1" layer="-1.00" shape="1359.46,2454.77 1360.30,2476.57 1387.10,2475.53 1386.25,2453.08 1359.46,2454.77"/>
    <poly id="373339070" type="amenity" color="237,199,199" fill="1" layer="-1.00" shape="719.78,2375.31 709.50,2396.86 754.68,2414.74 764.59,2392.83 719.78,2375.31"/>
    <poly id="373339070#1" type="building" color="255,230,230" fill="1" layer="-1.00" shape="719.78,2375.31 709.50,2396.86 754.68,2414.74 764.59,2392.83 719.78,2375.31"/>
    <poly id="374341027" type="building" color="255,230,230" fill="1" layer="-1.00" shape="870.71,2441.11 864.59,2455.22 883.65,2463.24 884.28,2461.03 890.75,2463.80 887.97,2474.72 899.24,2476.93 901.19,2467.12 915.67,2471.12 919.01,2455.77 893.53,2450.03 892.56,2453.28 887.76,2451.83 888.80,2448.99 870.71,2441.11"/>
    <poly id="374342016" type="building" color="255,230,230" fill="1" layer="-1.00" shape="1537.13,2415.59 1537.14,2444.98 1554.76,2443.70 1555.31,2431.64 1564.12,2430.91 1564.08,2413.72 1537.13,2415.59"/>
    <poly id="374342066" type="building" color="255,230,230" fill="1" layer="-1.00" shape="1576.43,2415.17 1576.60,2424.68 1569.25,2424.87 1569.44,2441.66 1598.52,2440.33 1597.90,2423.04 1591.29,2423.40 1589.98,2414.03 1576.43,2415.17"/>
    <poly id="374343962" type="amenity" color="237,199,199" fill="1" layer="-1.00" shape="1422.00,2357.10 1422.55,2372.06 1435.96,2371.15 1435.03,2355.81 1422.00,2357.10"/>
    <poly id="374343962#1" type="building" color="255,230,230" fill="1" layer="-1.00" shape="1422.00,2357.10 1422.55,2372.06 1435.96,2371.15 1435.03,2355.81 1422.00,2357.10"/>
    <poly id="376888983" type="building" color="255,230,230" fill="1" layer="-1.00" shape="1053.54,2390.04 1098.49,2387.60 1097.70,2373.19 1052.75,2375.63 1053.54,2390.04"/>
    <poly id="377224113" type="building" color="255,230,230" fill="1" layer="-1.00" shape="953.36,2306.89 964.87,2290.35 979.84,2300.65 974.11,2308.88 984.84,2316.27 979.05,2324.57 953.36,2306.89"/>
    <poly id="377224140" type="building" color="255,230,230" fill="1" layer="-1.00" shape="1545.26,2244.40 1582.71,2201.31 1604.38,2217.73 1565.46,2262.28 1545.26,2244.40"/>
    <poly id="377224248" type="building" color="255,230,230" fill="1" layer="-1.00" shape="1605.69,2669.95 1711.93,2774.30 1659.76,2826.80 1553.52,2722.45 1605.69,2669.95"/>
    <poly id="377310607" type="building" color="255,230,230" fill="1" layer="-1.00" shape="1684.90,2207.90 1710.78,2177.73 1686.29,2159.19 1661.24,2189.36 1684.90,2207.90"/>
    <poly id="377310734" type="building" color="255,230,230" fill="1" layer="-1.00" shape="1593.90,2293.41 1582.77,2305.31 1597.52,2317.76 1608.10,2306.69 1593.90,2293.41"/>
    <poly id="377489707" type="building" color="255,230,230" fill="1" layer="-1.00" shape="1440.42,2329.09 1510.87,2250.23 1479.22,2224.23 1406.25,2299.32 1440.42,2329.09"/>
    <poly id="377493878" type="building" color="255,230,230" fill="1" layer="-1.00" shape="1650.98,2034.83 1673.39,2009.67 1693.81,2027.64 1671.40,2052.80 1650.98,2034.83"/>
    <poly id="377493881" type="building" color="255,230,230" fill="1" layer="-1.00" shape="1675.17,2060.37 1707.27,2026.30 1717.12,2035.47 1685.02,2069.55 1675.17,2060.37"/>
    <poly id="377493884" type="building" color="255,230,230" fill="1" layer="-1.00" shape="1688.34,2073.24 1722.16,2038.94 1730.94,2047.50 1697.12,2081.81 1688.34,2073.24"/>
    <poly id="377493886" type="building" color="255,230,230" fill="1" layer="-1.00" shape="1724.57,2117.65 1768.64,2066.89 1779.29,2077.11 1735.96,2127.50 1724.57,2117.65"/>
    <poly id="377494109" type="building" color="255,230,230" fill="1" layer="-1.00" shape="1525.77,2346.15 1547.09,2324.47 1566.00,2353.85 1534.98,2362.53 1525.77,2346.15"/>
    <poly id="377496142" type="building" color="255,230,230" fill="1" layer="-1.00" shape="1543.43,2282.19 1520.65,2263.74 1532.04,2248.63 1555.66,2269.18 1543.43,2282.19"/>
    <poly id="377496479" type="tourism" color="207,245,201" fill="1" layer="-2.00" shape="1657.68,2165.86 1621.68,2065.10 1542.36,2138.86 1622.44,2203.47 1657.68,2165.86"/>
    <poly id="377496479#1" type="forest" color="140,196,107" fill="1" layer="-4.00" shape="1657.68,2165.86 1621.68,2065.10 1542.36,2138.86 1622.44,2203.47 1657.68,2165.86"/>
    <poly id="381220653" type="building" color="255,230,230" fill="1" layer="-1.00" shape="1243.64,2573.42 1233.17,2573.42 1221.09,2573.42 1220.76,2547.34 1243.15,2547.65 1243.64,2573.42"/>
    <poly id="381220657" type="building" color="255,230,230" fill="1" layer="-1.00" shape="1259.48,2383.89 1320.61,2380.50 1317.98,2335.25 1256.91,2340.01 1259.48,2383.89"/>
    <poly id="381220665" type="building" color="255,230,230" fill="1" layer="-1.00" shape="1776.72,2040.16 1759.02,2060.33 1743.23,2046.25 1761.58,2026.39 1776.72,2040.16"/>
    <poly id="382141287" type="building" color="255,230,230" fill="1" layer="-1.00" shape="1377.64,2219.66 1477.82,2137.74 1421.40,2079.53 1330.28,2162.07 1377.64,2219.66"/>
    <poly id="382141325" type="landuse" color="194,194,130" fill="1" layer="-3.00" shape="1504.13,2212.20 1554.81,2167.65 1521.38,2143.56 1472.91,2187.75 1504.13,2212.20"/>
    <poly id="442662508" type="building" color="255,230,230" fill="1" layer="-1.00" shape="1670.50,2040.87 1682.24,2027.69 1674.04,2020.46 1662.30,2033.66 1670.50,2040.87"/>
    <poly id="442662510" type="amenity" color="237,199,199" fill="1" layer="-1.00" shape="971.36,2476.44 998.61,2474.78 997.83,2462.05 970.58,2463.70 971.36,2476.44"/>
    <poly id="442662510#1" type="building" color="255,230,230" fill="1" layer="-1.00" shape="971.36,2476.44 998.61,2474.78 997.83,2462.05 970.58,2463.70 971.36,2476.44"/>
    <poly id="442662514" type="building" color="255,230,230" fill="1" layer="-1.00" shape="1096.09,2366.83 1123.30,2365.34 1122.56,2351.86 1095.35,2353.35 1096.09,2366.83"/>
    <poly id="470434889" type="tourism" color="207,245,201" fill="1" layer="-2.00" shape="2091.84,2397.67 2114.05,2433.94 2134.36,2454.74 2176.22,2476.49 2248.52,2371.79 2262.80,2363.26 2279.29,2359.47 2293.87,2348.76 2309.73,2344.65 2301.80,2312.49 2275.79,2326.37 2223.78,2356.97 2197.46,2370.85 2170.50,2370.22 2149.56,2334.28 2114.99,2363.29 2097.23,2385.68 2091.84,2397.67"/>
    <poly id="555008982" type="tourism" color="207,245,201" fill="1" layer="-2.00" shape="1628.81,2212.44 1655.96,2232.35 1679.75,2206.07 1653.44,2183.93 1628.81,2212.44"/>
    <poly id="555008983" type="tourism" color="207,245,201" fill="1" layer="-2.00" shape="1575.47,2402.24 1566.51,2390.81 1572.26,2376.82 1627.58,2373.64 1637.81,2386.98 1631.41,2397.48 1575.47,2402.24"/>
    <poly id="555008984" type="tourism" color="207,245,201" fill="1" layer="-2.00" shape="1271.74,2419.15 1443.75,2409.58 1435.11,2397.51 1443.10,2384.15 1269.54,2392.09 1273.69,2405.42 1271.74,2419.15"/>
    <poly id="555008985" type="tourism" color="207,245,201" fill="1" layer="-2.00" shape="1450.56,2408.95 1498.99,2406.45 1503.72,2391.79 1499.55,2380.44 1448.05,2384.32 1440.54,2398.16 1450.56,2408.95"/>
    <poly id="555008986" type="tourism" color="207,245,201" fill="1" layer="-2.00" shape="1504.29,2406.45 1509.01,2392.34 1504.28,2379.89 1566.35,2377.11 1559.67,2391.50 1569.97,2403.40 1504.29,2406.45"/>
    <poly id="555008987" type="tourism" color="207,245,201" fill="1" layer="-2.00" shape="1021.08,2375.25 978.77,2334.30 994.36,2307.18 989.62,2301.64 993.24,2293.34 1028.87,2297.77 1049.19,2306.89 1059.77,2312.98 1057.82,2316.02 1021.08,2375.25"/>
    <poly id="555010436" type="forest" color="140,196,107" fill="1" layer="-3.00" shape="945.51,2261.45 924.35,2218.29 980.01,2169.58 956.07,2118.12 938.81,2057.25 932.12,2026.25 1024.52,1968.13 919.87,1920.55 833.02,1913.09 780.37,1803.44 881.99,1727.14 1106.87,1722.68 1180.35,1718.25 1178.14,1800.15 1102.43,1833.36 1149.21,1948.47 1334.02,1986.07 1358.52,2019.27 1369.65,2043.63 1282.84,2167.60 1224.95,2220.74 1167.06,2242.89 1095.86,2291.85 945.51,2261.45"/>
    <poly id="555010437" type="forest" color="140,196,107" fill="1" layer="-3.00" shape="48.54,2163.37 198.79,2308.04 410.52,2223.00 411.34,2185.15 374.21,2133.15 326.96,2094.56 340.13,2069.04 377.58,2091.20 456.89,2084.49 509.21,2042.54 596.50,2056.35 615.52,2089.51 654.33,2069.37 649.26,2010.65 654.31,1898.25 780.37,1803.44 881.99,1727.14 826.41,1693.57 748.79,1717.06 657.67,1757.33 571.62,1804.31 539.69,1847.83 525.35,1858.77 490.03,1900.97 448.91,1946.65 400.91,1981.15 48.54,2163.37"/>
    <poly id="555324104" type="tourism" color="207,245,201" fill="1" layer="-2.00" shape="1236.89,2422.41 1268.39,2421.20 1273.69,2405.42 1269.11,2392.32 1243.18,2393.65 1235.75,2409.62 1236.89,2422.41"/>
    <poly id="555324105" type="tourism" color="207,245,201" fill="1" layer="-2.00" shape="1233.62,2423.07 1236.33,2422.64 1234.97,2409.32 1242.97,2393.72 1172.69,2396.05 1164.80,2403.11 1163.56,2411.64 1166.01,2416.66 1167.20,2419.45 1170.77,2422.84 1176.26,2427.10 1233.62,2423.07"/>
    <poly id="593530799" type="building" color="255,230,230" fill="1" layer="-1.00" shape="783.85,2469.92 795.16,2475.83 801.30,2464.20 817.63,2472.74 825.34,2458.15 797.69,2443.71 783.85,2469.92"/>
    <poly id="593530802" type="building" color="255,230,230" fill="1" layer="-1.00" shape="976.63,2555.79 991.94,2566.58 996.65,2559.97 981.34,2549.18 976.63,2555.79"/>